6

O    1.8095720217    0.7862208736    0.4170556027
H    1.3915909204    0.9217478044    1.2712659706
H    2.4013763294    0.0419975711    0.5536195072
O   -0.1694268456    0.1960379541   -1.6438354227
H   -0.1005318926    0.8467928864   -2.3446374336
H    0.5097294667    0.4559879103   -1.0067672243
